/*--------------------------------*- C++ -*----------------------------------*\
  =========                 |
  \\      /  F ield         | OpenFOAM: The Open Source CFD Toolbox
   \\    /   O peration     | Website:  https://openfoam.org
    \\  /    A nd           | Version:  7
     \\/     M anipulation  |
\*---------------------------------------------------------------------------*/
FoamFile
{
    version     2.0;
    format      ascii;
    class       volScalarField;
    object      Cw;
}
// * * * * * * * * * * * * * * * * * * * * * * * * * * * * * * * * * * * * * //

dimensions      [1 -3 0 0 0 0 0];

internalField   uniform 0;

boundaryField
{
    front
    {
        type    empty;
    }

    back
    {
        type    empty;
    }

    right
    {
  	    type	cyclicAMI;
    }

    left
    {
        type	cyclicAMI;
    }

    top
    {
        type            inletOutlet;
        phi             phi;
        inletValue      uniform 0.01;
        value           $internalField;
        
	}
    
    bottom
    {
        type            zeroGradient;
    }
}

// ************************************************************************* //
