/*--------------------------------*- C++ -*----------------------------------*\
  =========                 |
  \\      /  F ield         | OpenFOAM: The Open Source CFD Toolbox
   \\    /   O peration     | Website:  https://openfoam.org
    \\  /    A nd           | Version:  7
     \\/     M anipulation  |
\*---------------------------------------------------------------------------*/
FoamFile
{
    version     2.0;
    format      ascii;
    class       dictionary;
    location    "system";
    object      controlDict;
}
// * * * * * * * * * * * * * * * * * * * * * * * * * * * * * * * * * * * * * //
application     biocloggingFoam;

startFrom       latestTime;
startTime       0;
stopAt          endTime;

endTime	        86400; 
writeInterval   3600; 

deltaT          10;

writeControl    runTime;

purgeWrite      0;

writeFormat     ascii;

writePrecision  6;

writeCompression off;

timeFormat      fixed;

timePrecision   3;

runTimeModifiable true;

adjustTimeStep  yes;

maxCo           1.0;
debug           1;

// To plot breakthrough curve

functions
    {
        #includeFunc  boundaryProbes
    };


// ************************************************************************* //
