/*--------------------------------*- C++ -*----------------------------------*\
  =========                 |
  \\      /  F ield         | OpenFOAM: The Open Source CFD Toolbox
   \\    /   O peration     | Website:  https://openfoam.org
    \\  /    A nd           | Version:  7
     \\/     M anipulation  |
\*---------------------------------------------------------------------------*/
FoamFile
{
    version     2.0;
    format      ascii;
    class       dictionary;
    location    "constant";
    object      transportProperties;
}
// * * * * * * * * * * * * * * * * * * * * * * * * * * * * * * * * * * * * * //
// [g cm s K mol * *]

DUser     DUser     [0 2 -1 0 0 0 0]    9.81E-10;
AlphaDisp AlphaDisp [0 0 0 0 0 0 0]     0.00;//1.80;
PowerDisp PowerDisp [0 0 0 0 0 0 0]     1.00;
ds        ds        [0 1 0 0 0 0 0]     0.0384;   
dp        dp        [0 1 0 0 0 0 0]     5.0E-4;  
rho       rho       [1 -3 0 0 0 0 0]    0.997;
rho_clay  rho_clay  [1 -3 0 0 0 0 0]    1.050;
g         g         [0 1 -2 0 0 0 0]    981.0;
mu        mu        [1 -1 -1 0 0 0 0]   0.0089;
alpha     alpha     [0 0 0 0 0 0 0]     0.0;
Kmin      Kmin      [0 1 -1 0 0 0 0]    1.0E-5;
thetaMin  thetaMin  [0 0 0 0 0 0 0]     0.000;
Hamaker   Hamaker   [1 2 -2 0 0 0 0]    1.0E-13;
kBoltz    kBoltz    [1 2 -2 -1 0 0 0]   1.38E-16;
Temp      Temp      [0 0 0 1 0 0 0]     298.0;
Slope	  Slope		[0 0 0 0 0 0 0]		(0.00075 0.0 0.0);
//Slope	  Slope		[0 0 0 0 0 0 0]		(0.000153 0.0 0.0); // Equivalent to (0.15 0.0 0.0) m/s2


// ************************************************************************* //
