/*--------------------------------*- C++ -*----------------------------------*\
  =========                 |
  \\      /  F ield         | OpenFOAM: The Open Source CFD Toolbox
   \\    /   O peration     | Website:  https://openfoam.org
    \\  /    A nd           | Version:  7
     \\/     M anipulation  |
\*---------------------------------------------------------------------------*/
FoamFile
{
    version     2.0;
    format      ascii;
    class       dictionary;
    location    "constant";
    object      transportProperties;
}
// * * * * * * * * * * * * * * * * * * * * * * * * * * * * * * * * * * * * * //
// [g cm s K mol * *]

//Dispersion
DUser     DUser     [0 2 -1 0 0 0 0]    1.0E-10; // Fails if zero :(
AlphaDisp AlphaDisp [0 0 0 0 0 0 0]     0.00;//1.80;
PowerDisp PowerDisp [0 0 0 0 0 0 0]     1.00;

//Particle size
ds        ds        [0 1 0 0 0 0 0]     0.0384;   
dp        dp        [0 1 0 0 0 0 0]     1.0E-3;//7.5E-4;//5.0E-4;  

//Densities
rho       rho       [1 -3 0 0 0 0 0]    0.997;
rho_clay  rho_clay  [1 -3 0 0 0 0 0]    1.050;
rho_sand  rho_sand  [1 -3 0 0 0 0 0]    1.550;

//Reference porosity
refPoro   refPoro   [0 0 0 0 0 0 0]     0.358;

//Physical stuff
g         g         [0 1 -2 0 0 0 0]    981.0;
mu        mu        [1 -1 -1 0 0 0 0]   0.0089;
Hamaker   Hamaker   [1 2 -2 0 0 0 0]    1.0E-13;
kBoltz    kBoltz    [1 2 -2 -1 0 0 0]   1.38E-16;
Temp      Temp      [0 0 0 1 0 0 0]     298.0;

//Filtration efficiency
alpha     alpha     [0 0 0 0 0 0 0]     0.00;
Kmin      Kmin      [0 1 -1 0 0 0 0]    1.0E-5;
thetaMin  thetaMin  [0 0 0 0 0 0 0]     0.000;

//Underflow
Slope	  Slope		[0 0 0 0 0 0 0]		(0.00075 0.0 0.0);



// ************************************************************************* //
