/*--------------------------------*- C++ -*----------------------------------*\
  =========                 |
  \\      /  F ield         | OpenFOAM: The Open Source CFD Toolbox
   \\    /   O peration     | Website:  https://openfoam.org
    \\  /    A nd           | Version:  7
     \\/     M anipulation  |
\*---------------------------------------------------------------------------*/
FoamFile
{
    version         2;
    format          ascii;
    class           polyBoundaryMesh;
    location        "constant/polyMesh";
    object          boundary;
}


6 // entry0
(
    back
    {
        type            empty;
        nFaces          3476;
        startFace       6829;
    }
    top
    {
        type            patch;
        physicalType    patch;
        nFaces          44;
        startFace       10305;
    }
    right
    {
        type            cyclicAMI;
        nFaces          79;
        startFace       10349;
        transform       translational;
        neighbourPatch  left;
        separationVector ( -15 0 0 );
    }
    bottom
    {
        type            patch;
        physicalType    patch;
        nFaces          44;
        startFace       10428;
    }
    left
    {
        type            cyclicAMI;
        nFaces          79;
        startFace       10472;
        transform       translational;
        neighbourPatch  right;
        separationVector ( 15 0 0 );
    }
    front
    {
        type            empty;
        nFaces          3476;
        startFace       10551;
    }
)


// ************************************************************************* //
