/*--------------------------------*- C++ -*----------------------------------*\
  =========                 |
  \\      /  F ield         | OpenFOAM: The Open Source CFD Toolbox
   \\    /   O peration     | Website:  https://openfoam.org
    \\  /    A nd           | Version:  7
     \\/     M anipulation  |
\*---------------------------------------------------------------------------*/
FoamFile
{
    version     2.0;
    format      ascii;
    class       polyBoundaryMesh;
    location    "constant/polyMesh";
    object      boundary;
}
// * * * * * * * * * * * * * * * * * * * * * * * * * * * * * * * * * * * * * //

6
(
    back
    {
        type            empty;
        nFaces          5346;
        startFace       10539;
    }
    top
    {
        type            patch;
        physicalType    patch;
        nFaces          54;
        startFace       15885;
    }
    right
    {
        type            cyclicAMI;
        neighbourPatch  left;
        transform       translational;
        separationVector    (-15 0 0);
        nFaces          99;
        startFace       15939;
    }
    bottom
    {
        type            patch;
        physicalType    patch;
        nFaces          54;
        startFace       16038;
    }
    left
    {
        type            cyclicAMI;
        neighbourPatch  right;
        transform       translational;
        separationVector    (15 0 0);
        nFaces          99;
        startFace       16092;
    }
    front
    {
        type            empty;
        nFaces          5346;
        startFace       16191;
    }
)

// ************************************************************************* //
