/*--------------------------------*- C++ -*----------------------------------*\
  =========                 |
  \\      /  F ield         | OpenFOAM: The Open Source CFD Toolbox
   \\    /   O peration     | Website:  https://openfoam.org
    \\  /    A nd           | Version:  7
     \\/     M anipulation  |
\*---------------------------------------------------------------------------*/
FoamFile
{
    version     2.0;
    format      ascii;
    class       dictionary;
    location    "system";
    object      controlDict;
}
// * * * * * * * * * * * * * * * * * * * * * * * * * * * * * * * * * * * * * //
libs ("libmyBoundaryCondition.so");

application     filtrationFix;

startFrom       latestTime;
startTime       0;
stopAt          endTime;

//endTime			    86400;
//endTime         172800;
//endTime         259200;
endTime			    2.5;

deltaT          0.05;
//deltaT         10;

writeControl    runTime;
writeInterval   0.05;
//writeInterval   25;

purgeWrite      0;

writeFormat     ascii;

writePrecision  6;

writeCompression off;

timeFormat      fixed;

timePrecision   3;

runTimeModifiable true;

adjustTimeStep  yes;

maxCo           1.0;
debug           1;

// ************************************************************************* //
