/*--------------------------------*- C++ -*----------------------------------*\
  =========                 |
  \\      /  F ield         | OpenFOAM: The Open Source CFD Toolbox
   \\    /   O peration     | Website:  https://openfoam.org
    \\  /    A nd           | Version:  7
     \\/     M anipulation  |
\*---------------------------------------------------------------------------*/
FoamFile
{
    version     2.0;
    format      ascii;
    class       polyBoundaryMesh;
    location    "constant/polyMesh";
    object      boundary;
}
// * * * * * * * * * * * * * * * * * * * * * * * * * * * * * * * * * * * * * //

6
(
    top
    {
        type            patch;
        nFaces          25;
        startFace       3225;
    }
    left
    {
        type            wall;
        inGroups        List<word> 1(wall);
        nFaces          250;
        startFace       3250;
    }
    right
    {
        type            wall;
        inGroups        List<word> 1(wall);
        nFaces          250;
        startFace       3500;
    }
    front
    {
        type            empty;
        inGroups        List<word> 1(empty);
        nFaces          250;
        startFace       3750;
    }
    back
    {
        type            empty;
        inGroups        List<word> 1(empty);
        nFaces          250;
        startFace       4000;
    }
    bottom
    {
        type            patch;
        nFaces          25;
        startFace       4250;
    }
)

// ************************************************************************* //
